    4

O       1.352628   -0.008308    0.001169
O       2.647389    0.007212   -0.001924
H       6.612753   -0.009001   -0.020974
H       7.387021    0.026361    0.032935
    4

O       1.356937   -0.016090    0.002709
O       2.643095    0.014957   -0.003479
H       6.456231   -0.027661   -0.049744
H       7.331912    0.045447    0.061706
    4

O       1.360624   -0.023886    0.004252
O       2.639427    0.022715   -0.005036
H       6.305374   -0.045848   -0.077786
H       7.271081    0.064058    0.089750
    4

O       1.363426   -0.031712    0.005801
O       2.636653    0.030503   -0.006598
H       6.176446   -0.061527   -0.102005
H       7.188168    0.080163    0.113971
    4

O       1.365151   -0.039590    0.007359
O       2.634971    0.038344   -0.008171
H       6.075029   -0.073328   -0.120310
H       7.077513    0.092389    0.132284
    4

O       1.365696   -0.047540    0.008932
O       2.634488    0.046256   -0.009759
H       6.000945   -0.080566   -0.131655
H       6.939199    0.100054    0.143645
    4

O       1.365067   -0.055578    0.010522
O       2.635204    0.054256   -0.011364
H       5.948686   -0.083536   -0.136488
H       6.778659    0.103458    0.148501
    4

O       1.363373   -0.063709    0.012131
O       2.637013    0.062348   -0.012989
H       5.903629   -0.084798   -0.138707
H       6.610502    0.105161    0.150750
    4

O       1.360814   -0.071927    0.013757
O       2.639717    0.070527   -0.014632
H       5.838099   -0.091438   -0.149117
H       6.462307    0.112254    0.161194
    4

O       1.357659   -0.080214    0.015396
O       2.643051    0.078774   -0.016290
H       5.730258   -0.111714   -0.180278
H       6.355893    0.132997    0.192398
    4

O       1.354214   -0.088542    0.017042
O       2.646715    0.087060   -0.017956
H       5.597740   -0.141380   -0.225708
H       6.273528    0.163144    0.237909
    4

O       1.350797   -0.096873    0.018684
O       2.650395    0.095347   -0.019621
H       5.466987   -0.169873   -0.269338
H       6.188658    0.192143    0.281664
    4

O       1.347711   -0.105163    0.020311
O       2.653794    0.103591   -0.021277
H       5.351201   -0.190379   -0.300780
H       6.088021    0.213193    0.313299
    4

O       1.345226   -0.113368    0.021913
O       2.656641    0.111748   -0.022912
H       5.254553   -0.199861   -0.315400
H       5.967445    0.223259    0.328196
    4

O       1.343570   -0.121445    0.023478
O       2.658705    0.119774   -0.024516
H       5.176777   -0.197589   -0.312073
H       5.827270    0.221602    0.325236
    4

O       1.342916   -0.129352    0.024999
O       2.659803    0.127630   -0.026080
H       5.114092   -0.185072   -0.293071
H       5.671415    0.209707    0.306684
    4

O       1.343385   -0.137054    0.026468
O       2.659802    0.135283   -0.027597
H       5.057267   -0.167958   -0.266964
H       5.509333    0.193207    0.281095
    4

O       1.345041   -0.144525    0.027882
O       2.658621    0.142708   -0.029062
H       4.989520   -0.159289   -0.253532
H       5.358049    0.185111    0.268214
    4

O       1.347886   -0.151749    0.029240
O       2.656230    0.149891   -0.030470
H       4.897111   -0.173711   -0.274915
H       5.231754    0.200027    0.290149
    4

O       1.351857   -0.158727    0.030542
O       2.652635    0.156841   -0.031823
H       4.790040   -0.205232   -0.321902
H       5.121383    0.231882    0.337685
    4

O       1.356817   -0.165482    0.031792
O       2.647881    0.163586   -0.033123
H       4.684112   -0.237151   -0.369128
H       5.012533    0.263837    0.385479
    4

O       1.362559   -0.172060    0.032997
O       2.642071    0.170188   -0.034382
H       4.586958   -0.259295   -0.401059
H       4.899247    0.285491    0.418009
    4

O       1.368815   -0.178535    0.034171
O       2.635346    0.176739   -0.035615
H       4.501089   -0.267744   -0.411572
H       4.781002    0.292625    0.429210
    4

O       1.375270   -0.185001    0.035335
O       2.627866    0.183357   -0.036850
H       4.427051   -0.262024   -0.399667
H       4.659762    0.284366    0.418193
    4

O       1.381571   -0.191568    0.036517
O       2.619765    0.190187   -0.038126
H       4.364633   -0.244341   -0.368294
H       4.539170    0.262407    0.388086
    4

O       1.387354   -0.198357    0.037750
O       2.611116    0.197387   -0.039492
H       4.313013   -0.221076   -0.326558
H       4.424722    0.232487    0.348242
    4

O       1.392260   -0.205492    0.039066
O       2.601911    0.205133   -0.041005
H       4.271085   -0.205822   -0.294141
H       4.323309    0.207386    0.318685
    4

O       1.395955   -0.213109    0.040502
O       2.592122    0.213624   -0.042726
H       4.240218   -0.215542   -0.295485
H       4.239337    0.203073    0.324335
    4

O       1.398124   -0.221375    0.042104
O       2.581828    0.223103   -0.044744
H       4.224873   -0.249486   -0.328655
H       4.172074    0.217605    0.363907
    4

O       1.398511   -0.230485    0.043941
O       2.571312    0.233836   -0.047176
H       4.225134   -0.291747   -0.369586
H       4.120953    0.233960    0.414077
    4

O       1.396988   -0.240605    0.046088
O       2.560978    0.246031   -0.050142
H       4.237047   -0.331054   -0.401383
H       4.085471    0.240187    0.458682
    4

O       1.393595   -0.251807    0.048597
O       2.551152    0.259768   -0.053717
H       4.256372   -0.362474   -0.416860
H       4.064048    0.231229    0.490878
    4

O       1.388539   -0.264054    0.051479
O       2.541927    0.274991   -0.057901
H       4.280006   -0.384131   -0.413422
H       4.055004    0.205517    0.507928
    4

O       1.382160   -0.277199    0.054694
O       2.533135    0.291521   -0.062627
H       4.306138   -0.395477   -0.390212
H       4.057468    0.162975    0.508514
    4

O       1.374895   -0.291003    0.058163
O       2.524380    0.309093   -0.067781
H       4.334098   -0.397049   -0.347618
H       4.071491    0.104587    0.492482
    4

O       1.367238   -0.305166    0.061786
O       2.515130    0.327382   -0.073236
H       4.364527   -0.391378   -0.288960
H       4.097105    0.033245    0.462710
    4

O       1.359687   -0.319357    0.065458
O       2.504848    0.346039   -0.078871
H       4.400768   -0.385284   -0.225222
H       4.131616   -0.043913    0.429954
    4

O       1.352698   -0.333258    0.069089
O       2.493128    0.364718   -0.084585
H       4.452020   -0.391649   -0.180951
H       4.165072   -0.113494    0.418537
    4

O       1.346630   -0.346611    0.072611
O       2.479766    0.383110   -0.090290
H       4.529376   -0.419689   -0.179143
H       4.183985   -0.165476    0.451161
    4

O       1.341730   -0.359221    0.075974
O       2.464706    0.400958   -0.095908
H       4.625660   -0.459916   -0.203547
H       4.192461   -0.208440    0.511133
    4

O       1.338156   -0.370940    0.079141
O       2.447968    0.418052   -0.101365
H       4.724322   -0.500771   -0.226069
H       4.204166   -0.252985    0.569787
    4

O       1.336001   -0.381651    0.082078
O       2.429598    0.434220   -0.106602
H       4.814487   -0.537304   -0.231577
H       4.227707   -0.303182    0.611541
    4

O       1.335310   -0.391265    0.084761
O       2.409647    0.449330   -0.111575
H       4.890794   -0.568270   -0.214420
H       4.266956   -0.359636    0.630443
    4

O       1.336084   -0.399723    0.087172
O       2.388170    0.463299   -0.116261
H       4.951067   -0.593936   -0.173640
H       4.323270   -0.421693    0.625438
    4

O       1.338281   -0.407004    0.089302
O       2.365241    0.476099   -0.120652
H       4.995932   -0.615483   -0.111928
H       4.395528   -0.487957    0.599237
    4

O       1.341803   -0.413138    0.091157
O       2.340981    0.487746   -0.124754
H       5.031413   -0.635155   -0.038212
H       4.477319   -0.556027    0.560776
    4

O       1.346503   -0.418206    0.092756
O       2.315565    0.498313   -0.128585
H       5.074926   -0.656097    0.027400
H       4.550827   -0.622616    0.530191
    4

O       1.352177   -0.422349    0.094132
O       2.289207    0.507938   -0.132178
H       5.153415   -0.679394    0.059854
H       4.588808   -0.686512    0.532510
    4

O       1.358577   -0.425768    0.095331
O       2.262164    0.516814   -0.135578
H       5.265552   -0.702412    0.064483
H       4.592519   -0.750299    0.562390
    4

O       1.365420   -0.428717    0.096415
O       2.234722    0.525193   -0.138846
H       5.382558   -0.725236    0.065787
H       4.590723   -0.813848    0.595329
    4

O       1.372401   -0.431503    0.097459
O       2.207178    0.533381   -0.142058
H       5.484401   -0.749893    0.077438
H       4.603449   -0.875114    0.617638
    4

O       1.379223   -0.434463    0.098546
O       2.179829    0.541718   -0.145298
H       5.562427   -0.778053    0.103846
H       4.639377   -0.932443    0.624925
    4

O       1.385614   -0.437939    0.099761
O       2.152945    0.550544   -0.148654
H       5.614061   -0.810721    0.145266
H       4.701127   -0.984853    0.616957
    4

O       1.391360   -0.442241    0.101185
O       2.126742    0.560175   -0.152208
H       5.640855   -0.848204    0.199602
H       4.787179   -1.032102    0.595880
    4

O       1.396323   -0.447609    0.102880
O       2.101350    0.570856   -0.156022
H       5.650887   -0.889362    0.261776
H       4.889505   -1.075385    0.566810
    4

O       1.400460   -0.454175    0.104880
O       2.076808    0.582719   -0.160134
H       5.665586   -0.929430    0.322135
H       4.986731   -1.119517    0.539458
    4

O       1.403823   -0.461936    0.107188
O       2.053062    0.595766   -0.164548
H       5.719871   -0.958469    0.369850
H       5.044001   -1.174498    0.524671
    4

O       1.406544   -0.470758    0.109771
O       2.029979    0.609867   -0.169228
H       5.819405   -0.973076    0.407213
H       5.055698   -1.243749    0.520168
    4

O       1.408808   -0.480387    0.112565
O       2.007375    0.624767   -0.174111
H       5.929967   -0.983794    0.442956
H       5.056081   -1.316749    0.517231
    4

O       1.410832   -0.490483    0.115482
O       1.985031    0.640124   -0.179109
H       6.025909   -1.000093    0.479946
H       5.070815   -1.384040    0.512999
    4

O       1.412827   -0.500658    0.118423
O       1.962730    0.655549   -0.184124
H       6.096519   -1.026585    0.517812
H       5.110641   -1.441018    0.507845
    4

O       1.414981   -0.510514    0.121284
O       1.940281    0.670643   -0.189051
H       6.138862   -1.064969    0.555393
H       5.178520   -1.486009    0.502942
    4

O       1.417450   -0.519673    0.123964
O       1.917527    0.685032   -0.193791
H       6.154576   -1.115040    0.591520
H       5.272864   -1.519240    0.499466
    4

O       1.420351   -0.527802    0.126375
O       1.894349    0.698386   -0.198258
H       6.151263   -1.173832    0.625661
H       5.386111   -1.543691    0.497958
    4

O       1.423760   -0.534618    0.128442
O       1.870668    0.710429   -0.202379
H       6.148225   -1.232497    0.659850
H       5.499007   -1.568238    0.496393
    4

O       1.427718   -0.539903    0.130103
O       1.846438    0.720945   -0.206093
H       6.177923   -1.274221    0.702291
H       5.579119   -1.609697    0.486579
    4

O       1.432235   -0.543499    0.131316
O       1.821649    0.729779   -0.209355
H       6.251020   -1.291637    0.760369
H       5.615788   -1.675448    0.461128
    4

O       1.437296   -0.545315    0.132053
O       1.796316    0.736839   -0.212143
H       6.338120   -1.300605    0.825049
H       5.638447   -1.749650    0.429074
    4

O       1.442861   -0.545321    0.132304
O       1.770478    0.742095   -0.214448
H       6.415547   -1.315791    0.884246
H       5.670770   -1.817632    0.402493
    4

O       1.448876   -0.543555    0.132079
O       1.744191    0.745582   -0.216277
H       6.473789   -1.343900    0.931037
H       5.722261   -1.872674    0.388325
    4

O       1.455272   -0.540118    0.131402
O       1.717522    0.747403   -0.217655
H       6.510555   -1.387118    0.962315
H       5.795227   -1.912602    0.389668
    4

O       1.461971   -0.535180    0.130319
O       1.690548    0.747727   -0.218627
H       6.527245   -1.445087    0.977522
H       5.888259   -1.937780    0.407085
    4

O       1.468892   -0.528983    0.128895
O       1.663349    0.746793   -0.219259
H       6.529201   -1.514411    0.979575
H       5.996018   -1.951591    0.437657
    4

O       1.475957   -0.521837    0.127212
O       1.636006    0.744912   -0.219634
H       6.528808   -1.585664    0.979243
H       6.106119   -1.963466    0.470610
    4

O       1.483094   -0.514115    0.125374
O       1.608592    0.742454   -0.219852
H       6.546318   -1.640919    1.000458
H       6.198301   -1.991335    0.482016
    4

O       1.490247   -0.506234    0.123493
O       1.581160    0.739838   -0.220025
H       6.590093   -1.669746    1.060793
H       6.264228   -2.045639    0.454338
    4

O       1.497379   -0.498638    0.121691
O       1.553748    0.737503   -0.220278
H       6.643539   -1.687410    1.139112
H       6.320488   -2.111095    0.408653
    4

O       1.504480   -0.491751    0.120086
O       1.526369    0.735874   -0.220728
H       6.693558   -1.709570    1.209674
H       6.380178   -2.172057    0.370737
    4

O       1.511562   -0.485935    0.118778
O       1.499010    0.735314   -0.221475
H       6.735785   -1.743238    1.259371
H       6.447663   -2.221513    0.353693
    4

O       1.518658   -0.481445    0.117840
O       1.471637    0.736079   -0.222592
H       6.769822   -1.790503    1.283315
H       6.523337   -2.257379    0.362397
    4

O       1.525811   -0.478389    0.117304
O       1.444208    0.738279   -0.224110
H       6.796881   -1.850987    1.281170
H       6.605990   -2.280025    0.397181
    4

O       1.533058   -0.476715    0.117157
O       1.416687    0.741861   -0.226018
H       6.819308   -1.921884    1.257560
H       6.693275   -2.292257    0.453426
    4

O       1.540421   -0.476218    0.117343
O       1.389054    0.746619   -0.228260
H       6.840662   -1.995931    1.227105
H       6.781634   -2.301334    0.516505
    4

O       1.547892   -0.476572    0.117771
O       1.361318    0.752226   -0.230743
H       6.864038   -2.059502    1.221021
H       6.867968   -2.320882    0.555239
    4

O       1.555434   -0.477373    0.118327
O       1.333513    0.758278   -0.233353
H       6.887116   -2.103200    1.265599
H       6.954597   -2.360323    0.543295
    4

O       1.562981   -0.478189    0.118889
O       1.305705    0.764339   -0.235967
H       6.907654   -2.137215    1.337338
H       7.043767   -2.409442    0.504157
    4

O       1.570445   -0.478599    0.119337
O       1.277983    0.769986   -0.238467
H       6.929125   -2.173100    1.403373
H       7.132001   -2.456692    0.470747
    4

O       1.577724   -0.478219    0.119561
O       1.250446    0.774836   -0.240742
H       6.955422   -2.215732    1.447214
H       7.215412   -2.497200    0.459525
    4

O       1.584709   -0.476726    0.119466
O       1.223201    0.778565   -0.242696
H       6.989058   -2.266305    1.463193
H       7.291490   -2.529763    0.476170
    4

O       1.591297   -0.473861    0.118977
O       1.196351    0.780916   -0.244254
H       7.031310   -2.324387    1.451048
H       7.358948   -2.554817    0.520944
    4

O       1.597390   -0.469434    0.118037
O       1.169992    0.781701   -0.245359
H       7.081837   -2.388288    1.415416
H       7.418126   -2.574050    0.589221
    4

O       1.602906   -0.463324    0.116610
O       1.144210    0.780797   -0.245978
H       7.136402   -2.454427    1.369856
H       7.473263   -2.591052    0.667433
    4

O       1.607779   -0.455471    0.114678
O       1.119070    0.778147   -0.246092
H       7.182058   -2.516953    1.342855
H       7.537304   -2.611658    0.727063
    4

O       1.611963   -0.445883    0.112239
O       1.094617    0.773761   -0.245697
H       7.201288   -2.572440    1.361691
H       7.627786   -2.639303    0.740885
    4

O       1.615442   -0.434627    0.109313
O       1.070869    0.767707   -0.244813
H       7.201003   -2.624866    1.408930
H       7.737782   -2.670001    0.726304
    4

O       1.618225   -0.421832    0.105935
O       1.047815    0.760114   -0.243480
H       7.202044   -2.677408    1.454475
H       7.846449   -2.700578    0.713422
    4

O       1.620359   -0.407690    0.102159
O       1.025410    0.751173   -0.241752
H       7.217556   -2.730471    1.483386
H       7.940647   -2.730625    0.717186
    4

O       1.621928   -0.392453    0.098057
O       1.003571    0.741134   -0.239698
H       7.253256   -2.783544    1.490900
H       8.014662   -2.760652    0.742347
    4

O       1.623060   -0.376422    0.093716
O       0.982166    0.730298   -0.237408
H       7.310743   -2.835968    1.476993
H       8.066908   -2.791321    0.788925
    4

O       1.623927   -0.359941    0.089239
O       0.961020    0.719008   -0.234985
H       7.387942   -2.887233    1.445150
H       8.099447   -2.823138    0.853432
    4

O       1.624740   -0.343378    0.084735
O       0.939924    0.707638   -0.232539
H       7.475837   -2.937541    1.404431
H       8.121322   -2.855900    0.926820
    4

O       1.625742   -0.327101    0.080316
O       0.918644    0.696559   -0.230182
H       7.551469   -2.989407    1.372786
H       8.155487   -2.887095    0.991130
    4

O       1.627180   -0.311451    0.076087
O       0.896929    0.686112   -0.228018
H       7.584454   -3.048505    1.368068
H       8.232265   -2.911050    1.028490
    4

O       1.629277   -0.296702    0.072130
O       0.874552    0.676564   -0.226130
H       7.582685   -3.114980    1.381571
H       8.343832   -2.927614    1.047623
    4

O       1.632206   -0.283029    0.068501
O       0.851342    0.668091   -0.224573
H       7.578968   -3.181943    1.395927
H       8.457372   -2.943678    1.065898
    4

O       1.636052   -0.270481    0.065215
O       0.827211    0.660739   -0.223362
H       7.593569   -3.243940    1.403401
H       8.552621   -2.964685    1.091046
    4

O       1.640800   -0.258979    0.062251
O       0.802172    0.654426   -0.222475
H       7.634600   -3.298250    1.402270
H       8.621481   -2.993355    1.124787
    4

O       1.646326   -0.248335    0.059551
O       0.776351    0.648962   -0.221854
H       7.703934   -3.343823    1.393182
H       8.662057   -3.030730    1.166470
    4

O       1.652416   -0.238278    0.057035
O       0.749964    0.644083   -0.221416
H       7.798893   -3.381032    1.378033
H       8.677045   -3.076442    1.214204
    4

O       1.658787   -0.228499    0.054607
O       0.723293    0.639482   -0.221067
H       7.909293   -3.412888    1.360005
H       8.676619   -3.127486    1.264805
    4

O       1.665121   -0.218688    0.052169
O       0.696651    0.634845   -0.220709
H       8.010416   -3.448197    1.343136
H       8.685494   -3.175051    1.314247
    4

O       1.671090   -0.208557    0.049629
O       0.670371    0.629889   -0.220249
H       8.067661   -3.501275    1.328156
H       8.738239   -3.204861    1.361804
    4

O       1.676385   -0.197863    0.046909
O       0.644764    0.624373   -0.219608
H       8.083983   -3.572448    1.311124
H       8.831917   -3.216547    1.411409
    4

O       1.680727   -0.186410    0.043945
O       0.620107    0.618098   -0.218723
H       8.094042   -3.646610    1.293260
H       8.931855   -3.225222    1.461844
    4

O       1.683881   -0.174058    0.040688
O       0.596631    0.610922   -0.217545
H       8.119915   -3.712825    1.278583
H       9.015977   -3.241823    1.509084
    4

O       1.685663   -0.160716    0.037107
O       0.574527    0.602756   -0.216043
H       8.170034   -3.766297    1.270149
H       9.075866   -3.271141    1.550071
    4

O       1.685939   -0.146341    0.033183
O       0.553932    0.593557   -0.214198
H       8.246141   -3.805574    1.269747
H       9.109781   -3.314639    1.583017
    4

O       1.684629   -0.130932    0.028912
O       0.534924    0.583321   -0.212007
H       8.345793   -3.831474    1.277890
H       9.120167   -3.371497    1.607409
    4

O       1.681709   -0.114524    0.024302
O       0.517527    0.572084   -0.209481
H       8.460703   -3.848308    1.292534
H       9.115302   -3.437405    1.625294
    4

O       1.677212   -0.097187    0.019373
O       0.501704    0.559920   -0.206642
H       8.571717   -3.867586    1.305203
H       9.114344   -3.500848    1.645145
    4

O       1.671231   -0.079024    0.014159
O       0.487360    0.546930   -0.203520
H       8.651176   -3.908192    1.298105
H       9.144945   -3.542974    1.684756
    4

O       1.663924   -0.060162    0.008703
O       0.474333    0.533241   -0.200154
H       8.697360   -3.973409    1.264971
H       9.208803   -3.560480    1.750415
    4

O       1.655522   -0.040756    0.003057
O       0.462397    0.519005   -0.196596
H       8.735960   -4.044752    1.224649
H       9.280253   -3.571846    1.823262
    4

O       1.646319   -0.020978   -0.002721
O       0.451260    0.504396   -0.192903
H       8.783585   -4.108256    1.194243
H       9.342678   -3.591041    1.886182
    4

O       1.636673   -0.001007   -0.008568
O       0.440567    0.489592   -0.189137
H       8.845999   -4.158080    1.182151
H       9.390313   -3.623923    1.930792
    4

O       1.626990    0.018978   -0.014419
O       0.429916    0.474776   -0.185364
H       8.924006   -4.192602    1.191508
H       9.422354   -3.672104    1.953952
    4

O       1.617695    0.038817   -0.020216
O       0.418884    0.460108   -0.181645
H       9.015810   -4.212715    1.221974
H       9.440598   -3.734690    1.955994
    4

O       1.609195    0.058381   -0.025908
O       0.407063    0.445720   -0.178033
H       9.116738   -4.222568    1.268195
H       9.449720   -3.807544    1.942263
    4

O       1.601826    0.077583   -0.031458
O       0.394111    0.431695   -0.174562
H       9.217477   -4.232658    1.314062
H       9.459030   -3.880167    1.928888
    4

O       1.595817    0.096386   -0.036849
O       0.379801    0.418066   -0.171251
H       9.305992   -4.260586    1.328826
H       9.480558   -3.934953    1.946592
    4

O       1.591245    0.114807   -0.042080
O       0.364052    0.404815   -0.168097
H       9.381906   -4.312016    1.298973
H       9.514690   -3.966233    2.008882
    4

O       1.588027    0.132910   -0.047173
O       0.346952    0.391880   -0.165081
H       9.454925   -4.370996    1.253634
H       9.551718   -3.989969    2.086672
    4

O       1.585927    0.150781   -0.052160
O       0.328740    0.379177   -0.162172
H       9.529289   -4.424689    1.219867
H       9.587403   -4.018984    2.152892
    4

O       1.584594    0.168516   -0.057081
O       0.309769    0.366615   -0.159330
H       9.605149   -4.467936    1.210124
H       9.621588   -4.058444    2.195074
    4

O       1.583604    0.186198   -0.061975
O       0.290456    0.354109   -0.156516
H       9.681479   -4.499491    1.228507
H       9.655303   -4.109599    2.209125
    4

O       1.582507    0.203891   -0.066875
O       0.271247    0.341591   -0.153692
H       9.757077   -4.520117    1.274370
H       9.689746   -4.171674    2.195697
    4

O       1.580865    0.221639   -0.071813
O       0.252578    0.329017   -0.150831
H       9.831130   -4.532739    1.341408
H       9.725736   -4.241754    2.161104
    4

O       1.578282    0.239464   -0.076809
O       0.234850    0.316367   -0.147912
H       9.904740   -4.544142    1.411884
H       9.762168   -4.313052    2.123056
    4

O       1.574420    0.257361   -0.081873
O       0.218405    0.303643   -0.144926
H       9.984423   -4.565402    1.452072
H       9.792527   -4.374509    2.115321
    4

O       1.569010    0.275312   -0.087008
O       0.203511    0.290866   -0.141867
H      10.078527   -4.601021    1.442399
H       9.808465   -4.421627    2.157438
    4

O       1.561853    0.293283   -0.092210
O       0.190364    0.278068   -0.138741
H      10.180546   -4.641899    1.411755
H       9.816484   -4.463485    2.220501
    4

O       1.552819    0.311234   -0.097475
O       0.179087    0.265291   -0.135554
H      10.278656   -4.680864    1.389792
H       9.828415   -4.507257    2.274895
    4

O       1.541852    0.329122   -0.102793
O       0.169737    0.252579   -0.132315
H      10.365555   -4.715511    1.389869
H       9.851556   -4.555350    2.307252
    4

O       1.528962    0.346905   -0.108155
O       0.162301    0.239973   -0.129036
H      10.437844   -4.745608    1.416024
H       9.889304   -4.607993    2.313538
    4

O       1.514232    0.364542   -0.113545
O       0.156700    0.227509   -0.125727
H      10.494621   -4.771814    1.467565
H       9.942564   -4.664528    2.294440
    4

O       1.497817    0.382005   -0.118949
O       0.152783    0.215213   -0.122401
H      10.538041   -4.795428    1.539101
H      10.009180   -4.723657    2.255343
    4

O       1.479938    0.399285   -0.124358
O       0.150333    0.203099   -0.119068
H      10.577088   -4.818448    1.616556
H      10.080171   -4.783379    2.210314
    4

O       1.460884    0.416390   -0.129764
O       0.149058    0.191159   -0.115739
H      10.633343   -4.842681    1.673460
H      10.133955   -4.841885    2.185866
    4

O       1.441002    0.433355   -0.135161
O       0.148606    0.179363   -0.112419
H      10.727473   -4.866971    1.691480
H      10.149857   -4.900329    2.200284
    4

O       1.420696    0.450237   -0.140550
O       0.148571    0.167651   -0.109106
H      10.843060   -4.890016    1.690581
H      10.144300   -4.960018    2.233621
    4

O       1.400408    0.467125   -0.145937
O       0.148513    0.155937   -0.105792
H      10.953721   -4.913550    1.693496
H      10.143660   -5.019214    2.263150
    4

O       1.380583    0.484130   -0.151338
O       0.147993    0.144111   -0.102462
H      11.045080   -4.939600    1.709975
H      10.162313   -5.075896    2.279115
    4

O       1.361626    0.501374   -0.156773
O       0.146608    0.132047   -0.099098
H      11.111532   -4.969492    1.742509
H      10.205874   -5.128735    2.279025
    4

O       1.343844    0.518973   -0.162264
O       0.144045    0.119626   -0.095677
H      11.152212   -5.003914    1.790313
H      10.275210   -5.177044    2.263662
    4

O       1.327418    0.537023   -0.167832
O       0.140120    0.106750   -0.092181
H      11.170810   -5.042688    1.850022
H      10.366625   -5.220998    2.236388
    4

O       1.312380    0.555576   -0.173489
O       0.134803    0.093367   -0.088597
H      11.179939   -5.083557    1.914276
H      10.467508   -5.262860    2.204579
    4

O       1.298607    0.574626   -0.179237
O       0.128220    0.079484   -0.084922
H      11.208226   -5.119590    1.970716
H      10.549217   -5.309555    2.180586
    4

O       1.285848    0.594106   -0.185066
O       0.120629    0.065171   -0.081166
H      11.285548   -5.141482    2.011538
H      10.581891   -5.370385    2.172199
    4

O       1.273754    0.613888   -0.190954
O       0.112383    0.050557   -0.077350
H      11.394589   -5.153043    2.045112
H      10.582826   -5.441549    2.171056
    4

O       1.261923    0.633796   -0.196866
O       0.103882    0.035816   -0.073506
H      11.501372   -5.165398    2.079036
H      10.586014   -5.511926    2.169558
    4

O       1.249948    0.653626   -0.202760
O       0.095532    0.021153   -0.069677
H      11.587532   -5.185552    2.115000
H      10.609821   -5.574507    2.166018
    4

O       1.237449    0.673170   -0.208594
O       0.087709    0.006778   -0.065908
H      11.646387   -5.216560    2.152390
H      10.660938   -5.626243    2.161047
    4

O       1.224098    0.692224   -0.214325
O       0.080736   -0.007103   -0.062245
H      11.677080   -5.259265    2.190031
H      10.740219   -5.666287    2.155820
    4

O       1.209631    0.710596   -0.219908
O       0.074877   -0.020302   -0.058731
H      11.683441   -5.312536    2.226786
H      10.843846   -5.695784    2.151468
    4

O       1.193845    0.728124   -0.225304
O       0.070332   -0.032658   -0.055405
H      11.677432   -5.371447    2.262433
H      10.959859   -5.719661    2.148210
    4

O       1.176607    0.744674   -0.230481
O       0.067232   -0.044034   -0.052300
H      11.685496   -5.423527    2.300320
H      11.061820   -5.750389    2.142694
    4

O       1.157852    0.760142   -0.235413
O       0.065651   -0.054332   -0.049440
H      11.737694   -5.452469    2.349367
H      11.119673   -5.804284    2.126004
    4

O       1.137565    0.774466   -0.240084
O       0.065602   -0.063487   -0.046843
H      11.822530   -5.462804    2.410225
H      11.144850   -5.876824    2.097477
    4

O       1.115784    0.787629   -0.244482
O       0.067044   -0.071473   -0.044517
H      11.908792   -5.472255    2.471743
H      11.168600   -5.950303    2.068245
    4

O       1.092604    0.799649   -0.248610
O       0.069882   -0.078312   -0.042458
H      11.979537   -5.491725    2.524796
H      11.207874   -6.013835    2.047426
    4

O       1.068167    0.810598   -0.252481
O       0.073972   -0.084072   -0.040653
H      12.029010   -5.525589    2.564685
H      11.268409   -6.063076    2.039707
    4

O       1.042667    0.820600   -0.256121
O       0.079123   -0.088872   -0.039076
H      12.056682   -5.574858    2.589524
H      11.350733   -6.097023    2.046961
    4

O       1.016342    0.829829   -0.259568
O       0.085100   -0.092888   -0.037686
H      12.065523   -5.638050    2.599888
H      11.451864   -6.117166    2.068614
    4

O       0.989465    0.838515   -0.262878
O       0.091632   -0.096351   -0.036429
H      12.063688   -5.709575    2.600999
H      11.563639   -6.129094    2.099440
    4

O       0.962328    0.846940   -0.266119
O       0.098423   -0.099542   -0.035237
H      12.068092   -5.775868    2.608358
H      11.669127   -6.146364    2.123928
    4

O       0.935238    0.855422   -0.269370
O       0.105170   -0.102781   -0.034032
H      12.098422   -5.818074    2.647177
H      11.748640   -6.187803    2.116859
    4

O       0.908488    0.864294   -0.272711
O       0.111585   -0.106403   -0.032731
H      12.149832   -5.838025    2.717934
H      11.807041   -6.251605    2.077770
    4

O       0.882322    0.873877   -0.276223
O       0.117423   -0.110726   -0.031255
H      12.203957   -5.854708    2.793741
H      11.862681   -6.318795    2.033538
    4

O       0.856910    0.884435   -0.279970
O       0.122508   -0.116016   -0.029535
H      12.251605   -5.880212    2.855099
H      11.924745   -6.377309    2.003659
    4

O       0.832338    0.896138   -0.283997
O       0.126758   -0.122441   -0.027529
H      12.290407   -5.919172    2.893391
H      11.995592   -6.422518    1.996718
    4

O       0.808595    0.909035   -0.288315
O       0.130186   -0.130048   -0.025222
H      12.320755   -5.972564    2.905967
H      12.074811   -6.453461    2.015362
    4

O       0.785577    0.923038   -0.292904
O       0.132899   -0.138750   -0.022637
H      12.344408   -6.039059    2.894271
H      12.160656   -6.471457    2.058159
    4

O       0.763107    0.937935   -0.297712
O       0.135070   -0.148335   -0.019826
H      12.364444   -6.114076    2.866103
H      12.250053   -6.481064    2.117340
    4

O       0.740970    0.953414   -0.302660
O       0.136912   -0.158494   -0.016868
H      12.385159   -6.186922    2.842337
H      12.338717   -6.492932    2.172027
    4

O       0.718945    0.969105   -0.307656
O       0.138646   -0.168858   -0.013859
H      12.408558   -6.242068    2.857318
H      12.424646   -6.522573    2.187902
    4

O       0.696826    0.984609   -0.312597
O       0.140478   -0.179037   -0.010900
H      12.430869   -6.278364    2.917259
H      12.511615   -6.571137    2.158751
    4

O       0.674439    0.999544   -0.317387
O       0.142586   -0.188649   -0.008088
H      12.451976   -6.310307    2.988474
H      12.599737   -6.624134    2.118275
    4

O       0.651644    1.013564   -0.321937
O       0.145106   -0.197347   -0.005515
H      12.475519   -6.347420    3.045330
H      12.685367   -6.672025    2.092100
    4

O       0.628346    1.026372   -0.326167
O       0.148133   -0.204832   -0.003258
H      12.504605   -6.393107    3.076971
H      12.765393   -6.711410    2.091064
    4

O       0.604485    1.037736   -0.330013
O       0.151726   -0.210865   -0.001381
H      12.541155   -6.447901    3.080384
H      12.837906   -6.741747    2.118193
    4

O       0.580036    1.047479   -0.333429
O       0.155910   -0.215268    0.000068
H      12.585908   -6.510819    3.057161
H      12.902162   -6.764007    2.171901
    4

O       0.555003    1.055486   -0.336387
O       0.160678   -0.217926    0.001057
H      12.637451   -6.579171    3.014909
H      12.959593   -6.780873    2.244601
    4

O       0.529421    1.061707   -0.338871
O       0.166001   -0.218789    0.001572
H      12.688835   -6.647413    2.973041
H      13.017153   -6.797873    2.316899
    4

O       0.503336    1.066154   -0.340882
O       0.171830   -0.217870    0.001615
H      12.723661   -6.708053    2.964253
H      13.091255   -6.822477    2.356081
    4

O       0.476810    1.068905   -0.342440
O       0.178098   -0.215245    0.001205
H      12.731938   -6.760425    2.999386
H      13.191903   -6.855363    2.351320
    4

O       0.449922    1.070102   -0.343583
O       0.184729   -0.211061    0.000380
H      12.730109   -6.810707    3.048779
H      13.302655   -6.890340    2.332298
    4

O       0.422759    1.069960   -0.344368
O       0.191638   -0.205532   -0.000805
H      12.736175   -6.862085    3.088286
H      13.405507   -6.924228    2.323135
    4

O       0.395407    1.068763   -0.344868
O       0.198740   -0.198941   -0.002274
H      12.759453   -6.915060    3.108118
H      13.491142   -6.956522    2.333640
    4

O       0.367943    1.066860   -0.345178
O       0.205953   -0.191638   -0.003933
H      12.803605   -6.969217    3.105853
H      13.555892   -6.987635    2.366240
    4

O       0.340438    1.064653   -0.345407
O       0.213205   -0.184028   -0.005674
H      12.868822   -7.023886    3.082880
H      13.599582   -7.018231    2.419556
