    4

O       1.217087   -0.238605    0.065278
O       2.669451    0.301153   -0.065262
H       2.189977   -1.305600   -1.287757
H       2.499313    0.308308    1.283347
    4

O       1.200317   -0.257201    0.068030
O       2.676708    0.323904   -0.065955
H       2.003145   -1.382841   -1.346218
H       2.307587    0.319244    1.308817
    4

O       1.185044   -0.276715    0.068849
O       2.682420    0.346930   -0.063147
H       1.799191   -1.452236   -1.388911
H       2.133729    0.332455    1.293611
    4

O       1.171502   -0.296877    0.067887
O       2.686113    0.370055   -0.057338
H       1.581415   -1.512349   -1.413513
H       1.978248    0.345157    1.240906
    4

O       1.159756   -0.317333    0.065382
O       2.687473    0.393026   -0.049136
H       1.354473   -1.561839   -1.418688
H       1.840430    0.354464    1.155207
    4

O       1.149746   -0.337733    0.061560
O       2.686349    0.415585   -0.039154
H       1.123137   -1.600017   -1.404378
H       1.718841    0.358117    1.042585
    4

O       1.141324   -0.357831    0.056567
O       2.682783    0.437505   -0.027999
H       0.891568   -1.626827   -1.371889
H       1.611014    0.355720    0.911713
    4

O       1.134283   -0.377700    0.050352
O       2.677021    0.458602   -0.016250
H       0.662685   -1.642413   -1.323698
H       1.513469    0.351474    0.775085
    4

O       1.128363   -0.398033    0.042555
O       2.669444    0.478742   -0.004377
H       0.438074   -1.646576   -1.262851
H       1.422723    0.358239    0.649004
    4

O       1.123378   -0.420080    0.032744
O       2.660376    0.497839    0.007331
H       0.218684   -1.638698   -1.192230
H       1.335643    0.396721    0.547781
    4

O       1.119460   -0.444442    0.021192
O       2.649896    0.515830    0.018779
H       0.005892   -1.618299   -1.114016
H       1.247388    0.477082    0.470732
    4

O       1.116859   -0.469999    0.008953
O       2.637842    0.532680    0.029971
H      -0.198311   -1.585655   -1.029860
H       1.154580    0.582450    0.402696
    4

O       1.115501   -0.495031   -0.003088
O       2.623960    0.548391    0.040910
H      -0.392110   -1.541946   -0.941432
H       1.060640    0.686385    0.331212
    4

O       1.115133   -0.518290   -0.014529
O       2.608015    0.562996    0.051566
H      -0.574600   -1.488994   -0.850563
H       0.972418    0.770419    0.252295
    4

O       1.115562   -0.539071   -0.025259
O       2.589845    0.576508    0.061871
H      -0.745958   -1.428808   -0.759001
H       0.895820    0.825280    0.166942
    4

O       1.116717   -0.556982   -0.035294
O       2.569358    0.588900    0.071758
H      -0.907262   -1.363219   -0.668118
H       0.834511    0.847148    0.077848
    4

O       1.118630   -0.571828   -0.044768
O       2.546537    0.600127    0.081220
H      -1.060212   -1.293493   -0.578255
H       0.790008    0.834875   -0.012384
    4

O       1.121346   -0.583443   -0.053885
O       2.521415    0.610111    0.090297
H      -1.206447   -1.220718   -0.489018
H       0.762595    0.788123   -0.101607
    4

O       1.124935   -0.591654   -0.062850
O       2.494056    0.618727    0.099053
H      -1.347440   -1.145756   -0.399754
H       0.751587    0.706878   -0.188149
    4

O       1.129479   -0.596326   -0.071849
O       2.464573    0.625818    0.107554
H      -1.484345   -1.069223   -0.309826
H       0.755086    0.591908   -0.270781
    4

O       1.135105   -0.597526   -0.080999
O       2.433129    0.631246    0.115863
H      -1.617913   -0.991536   -0.218826
H       0.769174    0.446995   -0.349066
    4

O       1.142139   -0.595932   -0.090208
O       2.399913    0.634905    0.124036
H      -1.748510   -0.912971   -0.126677
H       0.785951    0.285000   -0.425443
    4

O       1.151446   -0.593463   -0.098732
O       2.365072    0.636706    0.132104
H      -1.876272   -0.833712   -0.033567
H       0.789664    0.137765   -0.511946
